Version 4.1
SHEET 1 1012 680
WIRE 464 32 176 32
WIRE 768 32 464 32
WIRE 640 128 624 128
WIRE 464 160 464 112
WIRE 464 160 336 160
WIRE 528 160 464 160
WIRE 624 160 624 128
WIRE 624 160 592 160
WIRE 624 176 624 160
WIRE 768 192 768 32
WIRE 48 208 16 208
WIRE 80 208 48 208
WIRE 176 208 176 112
WIRE 176 208 144 208
WIRE 272 208 176 208
WIRE 480 256 336 256
WIRE 48 272 48 208
WIRE 624 288 624 256
WIRE 176 320 176 208
WIRE 480 320 480 256
WIRE 48 448 48 352
WIRE 176 448 176 400
WIRE 480 448 480 400
WIRE 624 448 624 352
WIRE 768 448 768 272
FLAG 176 448 0
FLAG 480 448 0
FLAG 768 448 0
FLAG 16 208 WE
IOPIN 16 208 In
FLAG 640 128 WY
IOPIN 640 128 Out
FLAG 624 448 0
FLAG 48 448 0
DATAFLAG 224 208 "$-V(N002)"
SYMBOL npn 272 160 R0
SYMATTR InstName Q1
SYMATTR Value 2N3904
SYMBOL Misc\\EuropeanResistor 160 16 R0
SYMATTR InstName R1
SYMATTR Value 27K
SYMBOL Misc\\EuropeanResistor 160 304 R0
SYMATTR InstName R2
SYMATTR Value 2K7
SYMBOL Misc\\EuropeanResistor 448 16 R0
SYMATTR InstName R3
SYMATTR Value 1K3
SYMBOL Misc\\EuropeanResistor 464 304 R0
SYMATTR InstName R4
SYMATTR Value 100
SYMBOL voltage 768 176 R0
WINDOW 123 0 0 Left 0
WINDOW 39 0 0 Left 0
SYMATTR InstName V1
SYMATTR Value 12V
SYMBOL Misc\\EuropeanResistor 608 160 R0
SYMATTR InstName R5
SYMATTR Value 6k8
SYMBOL diode 608 288 R0
SYMATTR InstName D1
SYMATTR Value 1N4148
SYMBOL voltage 48 256 R0
WINDOW 123 24 124 Left 2
WINDOW 39 0 0 Left 0
SYMATTR Value2 AC .2 0
SYMATTR InstName V2
SYMATTR Value SINE(0 .2 1k)
SYMBOL cap 144 192 R90
WINDOW 0 0 32 VBottom 2
WINDOW 3 32 32 VTop 2
SYMATTR InstName C1
SYMATTR Value {C_PARAM}
SYMBOL cap 592 144 R90
WINDOW 0 0 32 VBottom 2
WINDOW 3 32 32 VTop 2
SYMATTR InstName C2
SYMATTR Value {C_PARAM}
TEXT -48 552 Left 2 !.step param C_PARAM list 1u 4u7 6u8 10u
TEXT -40 528 Left 2 !.ac dec 100 1 1meg
TEXT -48 584 Left 2 !.MEASURE wzm_max max(V(wy)/V(we))
TEXT -40 624 Left 2 !.MEASURE AC f_dolna FROM 0 TARG mag(V(wy)/V(we))=mag(wzm_max)/sqrt(2) RISE=1
